EV_data/13Bus/IEEE13Nodeckt_VLN_Node.Txt

LINE-GROUND and LINE-LINE VOLTAGES BY BUS & NODE

Bus       Node    VLN (kV)   Angle      pu     Base kV    Node-Node   VLL (kV)  Angle      pu

SOURCEBUS 1       66.392 /_   30.0   0.99995   115.000        1-2        115 /_   60.0   0.99997
   -      2       66.396 /_  -90.0         1   115.000        2-3        115 /_  -60.0         1
   -      3       66.392 /_  150.0   0.99995   115.000        3-1     114.99 /_  180.0   0.99995
650 ..... 1       2.4016 /_   30.0   0.99991     4.160        1-2     4.1597 /_   60.0   0.99994
   -      2       2.4018 /_  -90.0   0.99999     4.160        2-3     4.1599 /_  -60.0   0.99997
   -      3       2.4016 /_  150.0   0.99991     4.160        3-1     4.1596 /_  180.0    0.9999
RG60 .... 1       2.5364 /_   30.0     1.056     4.160        1-2     4.3544 /_   59.7    1.0467
   -      2       2.4916 /_  -90.0    1.0374     4.160        2-3     4.3545 /_  -59.7    1.0468
   -      3       2.5363 /_  150.0     1.056     4.160        3-1      4.393 /_  180.0     1.056
633 ..... 1       2.4269 /_   27.4    1.0104     4.160        1-2     4.2238 /_   58.1    1.0153
   -      2       2.4713 /_  -91.8    1.0289     4.160        2-3     4.2307 /_  -62.5     1.017
   -      3       2.4029 /_  147.8    1.0005     4.160        3-1     4.1912 /_  177.7    1.0075
634 ..... 1      0.27333 /_   26.7   0.98628     0.480        1-2    0.47661 /_   57.6   0.99294
   -      2         0.28 /_  -92.3    1.0104     0.480        2-3    0.47916 /_  -63.0   0.99825
   -      3      0.27196 /_  147.3   0.98135     0.480        3-1    0.47365 /_  177.1   0.98676
671 ..... 1       2.3566 /_   24.5   0.98118     4.160        1-2     4.1458 /_   57.2   0.99658
   -      2       2.5075 /_  -92.4     1.044     4.160        2-3     4.2094 /_  -64.5    1.0119
   -      3       2.3124 /_  146.0   0.96279     4.160        3-1     4.0729 /_  175.6   0.97906
645 ..... 2       2.4538 /_  -91.9    1.0216     4.160        2-3     4.2135 /_  -62.4    1.0129
   -      3       2.4047 /_  147.8    1.0012     4.160
646 ..... 2       2.4496 /_  -92.0    1.0199     4.160        2-3     4.2031 /_  -62.4    1.0104
   -      3       2.3998 /_  147.8   0.99917     4.160
692 ..... 1       2.3566 /_   24.5   0.98118     4.160        1-2     4.1458 /_   57.2   0.99658
   -      2       2.5075 /_  -92.4     1.044     4.160        2-3     4.2094 /_  -64.5    1.0119
   -      3       2.3124 /_  146.0   0.96279     4.160        3-1     4.0729 /_  175.6   0.97906
675 ..... 1       2.3409 /_   24.3   0.97463     4.160        1-2     4.1359 /_   57.1    0.9942
   -      2       2.5132 /_  -92.5    1.0464     4.160        2-3     4.2064 /_  -64.6    1.0112
   -      3       2.3077 /_  146.0   0.96085     4.160        3-1     4.0604 /_  175.4   0.97605
611 ..... 3       2.3027 /_  145.8   0.95874     4.160
652 ..... 1       2.3387 /_   24.6   0.97373     4.160
670 ..... 1       2.4088 /_   26.5    1.0029     4.160        1-2     4.2041 /_   57.8    1.0106
   -      2       2.4844 /_  -91.9    1.0344     4.160        2-3     4.2274 /_  -63.2    1.0162
   -      3       2.3738 /_  147.1   0.98833     4.160        3-1     4.1548 /_  177.0   0.99874
632 ..... 1       2.4342 /_   27.4    1.0135     4.160        1-2     4.2345 /_   58.1    1.0179
   -      2       2.4759 /_  -91.7    1.0309     4.160        2-3     4.2411 /_  -62.4    1.0195
   -      3       2.4093 /_  147.8    1.0031     4.160        3-1     4.2018 /_  177.8    1.0101
680 ..... 1       2.3566 /_   24.5   0.98118     4.160        1-2     4.1458 /_   57.2   0.99658
   -      2       2.5075 /_  -92.4     1.044     4.160        2-3     4.2094 /_  -64.5    1.0119
   -      3       2.3124 /_  146.0   0.96279     4.160        3-1     4.0729 /_  175.6   0.97906
684 ..... 1        2.352 /_   24.5   0.97926     4.160
   -      3       2.3075 /_  145.9   0.96076     4.160        3-1      4.063 /_  175.5   0.97669
